hello git 123
New line.
add another line/